      96
 i =        0, time =        0.000, E =      -496.9839924146
  O         5.8594621735       -3.5013110041        2.5347465490
  H         5.7811103106       -4.4237606523        2.3323747352
  H         6.5396510461       -3.5108816742        3.2059939621
  O        -5.6982932177        1.8822839940        5.5867418976
  H        -5.4554526465        1.1040207583        5.0462607491
  H        -5.1388090489        1.8694807641        6.3828792678
  O         6.5290594457        4.3157224330        4.5192176471
  H         5.8294799135        3.9795325370        3.9101888778
  H         6.6206885527        3.4865443122        5.0434863448
  O        -2.2699305014        0.9782765425       -3.7436098270
  H        -2.3052664096        1.2653600365       -2.8595777524
  H        -1.7554502452        0.1631958052       -3.7981486351
  O        -3.2684319323        5.1187326209        4.2815777534
  H        -4.1568284009        4.7687495379        4.3464770750
  H        -3.3202617718        6.0294041149        3.9288259526
  O         7.6402598085       -0.2211081433        4.0143409320
  H         7.6943128954       -1.1145905692        4.3256344463
  H         7.2882491983       -0.3808964099        3.1430043263
  O         4.4530746147       -5.1855689497        0.1115485771
  H         4.6435577376       -4.3409661726       -0.2964276620
  H         4.1018119085       -5.7401813517       -0.6091864648
  O        -0.8018091784       -2.4130279237       -1.3134779697
  H        -1.3642885804       -3.2337969131       -1.3557753694
  H        -1.3724094713       -1.7197417472       -0.8509239484
  O         3.1484451228       -2.9765821389        3.4647336355
  H         4.0735035273       -3.1240598173        3.3429036116
  H         2.8752429714       -2.6087661499        2.5992226049
  O         3.4447975504        2.4651310116        6.0977961052
  H         4.2291937387        1.9926189638        6.3904728012
  H         3.2851178058        3.0689502698        6.8728659871
  O         5.2142166910       -4.7239170049       -4.4148294975
  H         5.1194424143       -3.7325580908       -4.3185201952
  H         4.3254882389       -5.0939866300       -4.6164825478
  O         2.5566894864       -1.9417731097        0.8740169558
  H         1.7733255780       -2.5032150772        0.7266819909
  H         3.1751793444       -2.1417062890        0.1479389408
  O         2.5641236024       -5.5137847907       -4.8240139428
  H         2.3156299187       -6.4463455864       -4.6543495326
  H         2.4388469719       -5.3868225495       -5.7766324435
  O         5.0147301847        4.4246093955       -2.4888206433
  H         5.2037313330        3.5656774713       -2.0154172078
  H         5.7989825469        4.9828348980       -2.4440907897
  O         2.6003448942       -1.2297509637        5.5599658643
  H         2.8978046057       -1.9389484251        4.8764390658
  H         2.2678111445       -0.5157497035        4.9148675460
  O        -0.7792268615        2.6170125570        6.8030419460
  H        -0.6030947816        2.1831659638        5.8756776277
  H        -1.3021226016        1.9779890240        7.3448177094
  O        -1.3977152785       -3.1356855951        3.3121923524
  H        -0.7137007184       -3.0842342459        2.6794651083
  H        -1.0313398692       -3.7551470657        4.0372300366
  O        -2.4739650185        3.0730365542        2.6449627770
  H        -1.7051548926        2.5364374328        2.8867765093
  H        -2.6048718708        3.7230739368        3.3548379456
  O         2.2367597892       -1.3898838572       -4.1405034669
  H         2.4070020904       -1.2539449245       -5.0730920476
  H         2.8666165558       -0.8846073248       -3.5770093573
  O        -2.0209461872       -0.2005437935        0.0608947323
  H        -2.9664330243       -0.0572836202       -0.2017562059
  H        -2.1238805430       -0.2267811956        1.0295783461
  O        -3.8613146114        4.6953814872       -2.6241374441
  H        -4.5270055887        5.4497112172       -2.7040820775
  H        -4.0243436488        4.3466459752       -1.7438086997
  O         4.9755770778        6.1667782422        2.4662313548
  H         4.3280257337        6.5155700641        1.8374027194
  H         4.4094952735        5.6446214342        3.0370789322
  O         5.4774431942       -2.1186803622       -3.7364106772
  H         5.3739017479       -1.3330786011       -4.3386943886
  H         6.4502593745       -2.1669387306       -3.6361083831
  O        -5.8924787696        6.6977939105       -2.4691849572
  H        -5.5542063676        7.2856693195       -1.7712667100
  H        -6.3674622536        7.0464323315       -3.2428465624
  O         8.0592006197        0.9805106505       -0.6717351982
  H         8.2043721940        1.8231138446       -0.2101353509
  H         7.2527386033        1.1452447423       -1.2485136210
  O         2.2217323971        0.7310260495        1.0649008832
  H         1.4575518651        1.0791191133        0.5182722688
  H         2.3991062666       -0.2256110792        0.8428613298
  O        -5.2477736815       -5.3387475144        0.3051615197
  H        -4.7693319181       -5.6155893796        1.0845948203
  H        -6.1194629692       -5.7610715449        0.3750243643
  O        -3.9746747248        3.4860899103        0.5544540968
  H        -4.9481372479        3.6948999139        0.7491707815
  H        -3.5305753813        3.2515286635        1.4129607089
  O         4.9011684995       -0.3433427701       -5.5907030361
  H         5.4571808450        0.0042180636       -6.3009086742
  H         4.0988614234       -0.7927494033       -6.0251962697
  O         4.6576534303       -2.6034362773       -0.8720289544
  H         5.6198183891       -2.4501844887       -0.7776134805
  H         4.5404677154       -2.5437031526       -1.8494780643
  O         1.5404119804        1.9531847981       -1.3732059290
  H         1.8095084763        2.8571570296       -1.0432305922
  H         1.0816332052        2.2132061148       -2.1641987170
  O        -2.2336029335       -0.3830355673        2.8665890817
  H        -1.9408844692       -1.3016937788        3.0415062130
  H        -3.0797215717       -0.3297804478        3.3198823376
